egret/models/tests/pglib_opf_case3_lmbd_acopf_0940.json
{"elements": {"bus": {"1": {"matpower_bustype": "ref", "area": 1.0, "vm": 1.0871113787877387, "va": 0.0, "base_kv": 240.0, "zone": 1.0, "v_min": 0.9, "v_max": 1.1, "lmp": 33.97031733290556, "qlmp": 1.9939285316412377e-11, "pl": 103.4, "ql": 37.599999999999994}, "2": {"matpower_bustype": "PV", "area": 1.0, "vm": 0.9261705375644901, "va": 0.16088065387503356, "base_kv": 240.0, "zone": 1.0, "v_min": 0.9, "v_max": 1.1, "lmp": 29.60749454193639, "qlmp": -3.886672849222129e-12, "pl": 103.4, "ql": 37.599999999999994}, "3": {"matpower_bustype": "PV", "area": 1.0, "vm": 0.9, "va": -0.26717753274751205, "base_kv": 240.0, "zone": 1.0, "v_min": 0.9, "v_max": 1.1, "lmp": 38.9022143283347, "qlmp": -3.341169802408989e-12, "pl": 89.3, "ql": 47.0}}, "load": {"load_1": {"in_service": true, "p_load": 103.4, "q_load": 37.599999999999994, "bus": "1"}, "load_2": {"in_service": true, "p_load": 103.4, "q_load": 37.599999999999994, "bus": "2"}, "load_3": {"in_service": true, "p_load": 89.3, "q_load": 47.0, "bus": "3"}}, "generator": {"1": {"bus": "1", "pg": 131.68326061067907, "qg": 48.62518824526281, "vg": 1.0, "mbase": 100.0, "in_service": true, "p_min": 0.0, "p_max": 2000.0, "q_min": -1000.0, "q_max": 1000.0, "generator_type": "thermal", "p_cost": {"data_type": "cost_curve", "cost_curve_type": "polynomial", "values": {"0": 0.0, "1": 5.0, "2": 0.11}}, "startup_cost": 0.0, "shutdown_cost": 0.0}, "2": {"bus": "2", "pg": 167.10290907675798, "qg": -9.499883055856102, "vg": 1.0, "mbase": 100.0, "in_service": true, "p_min": 0.0, "p_max": 2000.0, "q_min": -1000.0, "q_max": 1000.0, "generator_type": "thermal", "p_cost": {"data_type": "cost_curve", "cost_curve_type": "polynomial", "values": {"0": 0.0, "1": 1.2, "2": 0.08500000000000002}}, "startup_cost": 0.0, "shutdown_cost": 0.0}, "3": {"bus": "3", "pg": 0.0, "qg": -8.166733311122202, "vg": 1.0, "mbase": 100.0, "in_service": true, "p_min": 0.0, "p_max": 0.0, "q_min": -1000.0, "q_max": 1000.0, "generator_type": "thermal", "p_cost": {"data_type": "cost_curve", "cost_curve_type": "polynomial", "values": {"0": 0.0, "1": 0.0, "2": 0.0}}, "startup_cost": 0.0, "shutdown_cost": 0.0}}, "branch": {"1": {"from_bus": "1", "to_bus": "3", "resistance": 0.065, "reactance": 0.62, "charging_susceptance": 0.45, "branch_type": "line", "rating_long_term": 9000.0, "rating_short_term": 9000.0, "rating_emergency": 9000.0, "in_service": true, "angle_diff_min": -30.0, "angle_diff_max": 30.0, "pf": 45.19236269459231, "qf": 7.0785432752062745, "pt": -43.4455682431234, "qt": -35.23256209301732, "pfl": 1.7467944514689138, "qfl": -28.15401881781105, "pf_dual": 3397.0317332905997, "qf_dual": 2.0007891176571667e-09}, "2": {"from_bus": "3", "to_bus": "2", "resistance": 0.025, "reactance": 0.75, "charging_susceptance": 0.7, "branch_type": "line", "rating_long_term": 50.0, "rating_short_term": 50.0, "rating_emergency": 50.0, "in_service": true, "angle_diff_min": -30.0, "angle_diff_max": 30.0, "pf": -45.85443175687661, "qf": -19.934171218104872, "pt": 46.525251238262484, "qt": -18.313959037284544, "pfl": 0.6708194813858759, "qfl": -38.24813025538942, "pf_dual": 3582.7645215764596, "qf_dual": -133.65989720207347}, "3": {"from_bus": "1", "to_bus": "2", "resistance": 0.042, "reactance": 0.9, "charging_susceptance": 0.3, "branch_type": "line", "rating_long_term": 9000.0, "rating_short_term": 9000.0, "rating_emergency": 9000.0, "in_service": true, "angle_diff_min": -30.0, "angle_diff_max": 30.0, "pf": -16.90910208391324, "qf": 3.946644970056542, "pt": 17.17765783849546, "qt": -28.785924018571553, "pfl": 0.2685557545822198, "qfl": -24.83927904851501, "pf_dual": 3397.0317332905397, "qf_dual": 1.9977536150440975e-09}}}, "system": {"model_name": "pglib_opf_case3_lmbd", "mpc_version": "'2'", "baseMVA": 100.0, "reference_bus": "1", "reference_bus_angle": 0.0, "total_cost": 5139.880206564904, "ploss": 2.6861696874370096, "qloss": -91.24142812171547, "mult": 0.94}, "results": {"time": 0.020683765411376953, "#_cons": 36, "#_vars": 23, "termination": "optimal"}}